Version 4
SHEET 1 1424 680
WIRE 528 -368 432 -368
WIRE 432 -304 432 -368
WIRE 528 -304 528 -368
WIRE 528 -192 528 -224
WIRE 432 -112 432 -224
WIRE 432 -112 -272 -112
WIRE 592 -112 432 -112
WIRE 640 -112 592 -112
WIRE 688 -112 640 -112
WIRE 432 -96 432 -112
WIRE -272 -16 -272 -112
WIRE 432 -16 432 -32
WIRE 592 48 592 -112
WIRE 432 96 432 64
WIRE 384 112 336 112
WIRE 336 128 336 112
WIRE -624 144 -720 144
WIRE -512 144 -560 144
WIRE -448 144 -512 144
WIRE -272 144 -272 64
WIRE -272 144 -368 144
WIRE -240 144 -272 144
WIRE 112 144 -240 144
WIRE 384 160 176 160
WIRE 112 176 0 176
WIRE 0 192 0 176
WIRE -272 240 -272 144
WIRE -720 256 -720 144
WIRE 0 304 0 272
WIRE 432 304 432 176
WIRE 432 304 0 304
WIRE 592 304 592 112
WIRE 592 304 432 304
WIRE -720 496 -720 336
WIRE -272 496 -272 320
WIRE -272 496 -720 496
WIRE -112 496 -272 496
WIRE 432 496 432 304
WIRE 432 496 -112 496
WIRE -112 576 -112 496
FLAG -112 576 0
FLAG 336 128 0
FLAG 528 -192 0
FLAG -240 144 in
FLAG 640 -112 out
FLAG -512 144 in1
SYMBOL voltage 528 -320 R0
SYMATTR InstName V2
SYMATTR Value 9.5
SYMBOL res 448 -208 R180
WINDOW 0 36 76 Left 2
WINDOW 3 36 40 Left 2
SYMATTR InstName R1
SYMATTR Value 232
SYMBOL MyOpamp 144 160 R0
WINDOW 0 -31 -47 Left 2
WINDOW 40 86 76 Center 2
WINDOW 38 75 -28 Center 2
SYMATTR InstName U1
SYMATTR SpiceLine2 Ao=750 FBW=1.5meg
SYMBOL voltage 0 176 R0
WINDOW 123 0 0 Left 0
WINDOW 39 0 0 Left 0
SYMATTR InstName V1
SYMATTR Value 2.5
SYMBOL diode 416 -96 R0
WINDOW 0 44 7 Left 2
WINDOW 3 43 38 Left 2
SYMATTR InstName D1
SYMATTR Value Diode1
SYMBOL voltage 432 -32 R0
WINDOW 123 0 0 Left 0
WINDOW 39 0 0 Left 0
WINDOW 0 41 42 Left 2
WINDOW 3 36 74 Left 2
SYMATTR InstName V3
SYMATTR Value 2.5
SYMBOL g 432 192 M180
WINDOW 3 40 33 Left 2
WINDOW 0 41 63 Left 2
SYMATTR Value 5m
SYMATTR InstName G1
SYMBOL diode 608 112 R180
WINDOW 0 -48 37 Left 2
WINDOW 3 -71 -8 Left 2
SYMATTR InstName D2
SYMATTR Value Diode2
SYMBOL res -288 -32 R0
SYMATTR InstName R2
SYMATTR Value 10k
SYMBOL res -288 224 R0
SYMATTR InstName R3
SYMATTR Value 8.25k
SYMBOL cap -624 128 M90
WINDOW 0 0 32 VBottom 2
WINDOW 3 32 32 VTop 2
SYMATTR InstName C1
SYMATTR Value 100µ
SYMBOL voltage -720 240 R0
WINDOW 123 0 0 Left 0
WINDOW 39 0 0 Left 0
WINDOW 0 50 47 Left 2
WINDOW 3 34 82 Left 2
SYMATTR InstName V4
SYMATTR Value SINE(0 1m 100)
SYMBOL res -352 128 R90
WINDOW 0 0 56 VBottom 2
WINDOW 3 32 56 VTop 2
SYMATTR InstName R4
SYMATTR Value 1k
TEXT -40 536 Left 2 !.model Diode1 D(Ron=1m Roff=1meg Vfwd=1m Vrev=1k)\n.model Diode2 D(Ron=1m Roff=1meg Vfwd=1m Vrev=40)
TEXT 344 360 Left 2 ;Anode
TEXT 320 -136 Left 2 ;Cathode
TEXT -96 128 Left 2 ;Ref
TEXT -112 -160 Left 2 !.tran 0 100m 50m
