Version 4
SHEET 1 1424 680
WIRE 432 -176 320 -176
WIRE 432 -112 432 -176
WIRE 592 -112 432 -112
WIRE 432 -96 432 -112
WIRE 432 -16 432 -32
WIRE 592 48 592 -112
WIRE 432 96 432 64
WIRE 384 112 336 112
WIRE 336 128 336 112
WIRE 112 144 -112 144
WIRE 384 160 176 160
WIRE 112 176 0 176
WIRE 0 192 0 176
WIRE 0 304 0 272
WIRE 432 304 432 176
WIRE 432 304 0 304
WIRE 592 304 592 112
WIRE 592 304 432 304
WIRE 432 400 432 304
WIRE 432 400 352 400
FLAG 336 128 0
FLAG 320 -176 K
IOPIN 320 -176 In
FLAG 352 400 A
IOPIN 352 400 In
FLAG -112 144 REF
IOPIN -112 144 In
SYMBOL MyOpamp 144 160 R0
WINDOW 0 -31 -47 Left 2
WINDOW 40 86 76 Center 2
WINDOW 38 75 -28 Center 2
SYMATTR InstName U1
SYMATTR SpiceLine2 Ao=750 FBW=1.5meg
SYMBOL voltage 0 176 R0
WINDOW 123 0 0 Left 0
WINDOW 39 0 0 Left 0
SYMATTR InstName V1
SYMATTR Value 2.5
SYMBOL diode 416 -96 R0
WINDOW 0 44 7 Left 2
WINDOW 3 43 38 Left 2
SYMATTR InstName D1
SYMATTR Value Diode1
SYMBOL voltage 432 -32 R0
WINDOW 123 0 0 Left 0
WINDOW 39 0 0 Left 0
WINDOW 0 41 42 Left 2
WINDOW 3 36 74 Left 2
SYMATTR InstName V2
SYMATTR Value 2.5
SYMBOL g 432 192 M180
WINDOW 3 40 33 Left 2
WINDOW 0 41 63 Left 2
SYMATTR Value 5m
SYMATTR InstName G1
SYMBOL diode 608 112 R180
WINDOW 0 -48 37 Left 2
WINDOW 3 -71 -8 Left 2
SYMATTR InstName D2
SYMATTR Value Diode2
TEXT -24 456 Left 2 !.model Diode1 D(Ron=1m Roff=1meg Vfwd=1m Vrev=1k)\n.model Diode2 D(Ron=1m Roff=1meg Vfwd=1m Vrev=40)
TEXT 448 288 Left 2 ;Anode
TEXT 456 -136 Left 2 ;Cathode
