Version 4
SHEET 1 1424 680
WIRE -544 -112 -624 -112
WIRE -288 -112 -464 -112
WIRE 160 -112 -288 -112
WIRE 720 -112 160 -112
WIRE 752 -112 720 -112
WIRE -288 -32 -288 -112
WIRE 160 96 160 -112
WIRE -624 144 -624 -112
WIRE -288 144 -288 48
WIRE -224 144 -288 144
WIRE 112 144 -224 144
WIRE -288 272 -288 144
WIRE -624 496 -624 224
WIRE -288 496 -288 352
WIRE -288 496 -624 496
WIRE -112 496 -288 496
WIRE 160 496 160 192
WIRE 160 496 -112 496
WIRE -112 576 -112 496
FLAG -112 576 0
FLAG 720 -112 out
FLAG -224 144 Ref
DATAFLAG 544 -112 ""
SYMBOL res -560 -96 R270
WINDOW 0 32 56 VTop 2
WINDOW 3 0 56 VBottom 2
SYMATTR InstName R3
SYMATTR Value 1k
SYMBOL res -304 256 R0
SYMATTR InstName R2
SYMATTR Value 5k
SYMBOL voltage -624 128 R0
WINDOW 123 44 70 Left 2
WINDOW 39 0 0 Left 0
WINDOW 0 57 38 Left 2
WINDOW 3 57 66 Left 2
SYMATTR InstName V4
SYMATTR Value 10
SYMBOL res -304 -48 R0
SYMATTR InstName R1
SYMATTR Value 10k
SYMBOL MyTL431 160 144 R0
SYMATTR InstName U1
TEXT 8 -136 Left 2 ;Cathode
TEXT -136 -192 Left 2 !.op
TEXT 40 472 Left 2 ;Anode
TEXT -24 120 Left 2 ;REF
