Version 4
SHEET 1 1424 680
WIRE 528 -368 432 -368
WIRE 432 -304 432 -368
WIRE 528 -304 528 -368
WIRE 528 -192 528 -224
WIRE 432 -112 432 -224
WIRE 432 -112 -272 -112
WIRE 640 -112 432 -112
WIRE 688 -112 640 -112
WIRE -272 -16 -272 -112
WIRE 432 96 432 -112
WIRE -624 144 -720 144
WIRE -512 144 -560 144
WIRE -448 144 -512 144
WIRE -272 144 -272 64
WIRE -272 144 -368 144
WIRE -240 144 -272 144
WIRE 384 144 -240 144
WIRE -272 240 -272 144
WIRE -720 256 -720 144
WIRE -720 496 -720 336
WIRE -272 496 -272 320
WIRE -272 496 -720 496
WIRE -112 496 -272 496
WIRE 432 496 432 192
WIRE 432 496 -112 496
WIRE -112 576 -112 496
FLAG -112 576 0
FLAG 528 -192 0
FLAG -240 144 in
FLAG 640 -112 out
FLAG -512 144 in1
SYMBOL voltage 528 -320 R0
SYMATTR InstName V2
SYMATTR Value 9.5
SYMBOL res 448 -208 R180
WINDOW 0 36 76 Left 2
WINDOW 3 36 40 Left 2
SYMATTR InstName R1
SYMATTR Value 232
SYMBOL res -288 -32 R0
SYMATTR InstName R2
SYMATTR Value 10k
SYMBOL res -288 224 R0
SYMATTR InstName R3
SYMATTR Value 8.25k
SYMBOL cap -624 128 M90
WINDOW 0 0 32 VBottom 2
WINDOW 3 32 32 VTop 2
SYMATTR InstName C1
SYMATTR Value 100µ
SYMBOL voltage -720 240 R0
WINDOW 123 48 71 Left 2
WINDOW 39 0 0 Left 0
WINDOW 0 67 38 Left 2
WINDOW 3 34 82 Left 2
SYMATTR Value2 AC 1m
SYMATTR InstName V4
SYMATTR Value ""
SYMBOL res -352 128 R90
WINDOW 0 0 56 VBottom 2
WINDOW 3 32 56 VTop 2
SYMATTR InstName R4
SYMATTR Value 1k
SYMBOL MyTL431 432 144 R0
SYMATTR InstName U1
TEXT 344 360 Left 2 ;Anode
TEXT 320 -136 Left 2 ;Cathode
TEXT 208 128 Left 2 ;Ref
TEXT -353 -165 Left 2 !.ac dec 101 100 1meg
